LAMMPS (17 Apr 2024)
# MD of SPC/E water between rigid walls

variable        temp          equal  300
variable        dt            equal  2.0
variable        Nw            equal  2651
variable        l          loop 10
variable d equal 42.6*44.2712*2.6/720
# set wall time limit to ensure we write out a restart file at the end
# timer timeout 47:30:00 every 1000

#======General Settings =======

processors * * *

units               real
boundary            p p f
atom_style          full # for SPC/E

# global model settings
pair_style      lj/cut/coul/long 14.0 # Angstrom!!
pair_modify     shift yes mix arithmetic # Lorentz-Berthelot
kspace_style    pppm/electrode 1e-6
kspace_modify   slab 3 # vacuum layer width
bond_style      harmonic
angle_style     harmonic

region box block 0 42.6 0 44.2712 -25.1 25.1
create_box      6 box                                       bond/types 1                                angle/types 1                               extra/bond/per/atom 2                       extra/angle/per/atom 1                      extra/special/per/atom 2
Created orthogonal box = (0 0 -25.1) to (42.6 44.2712 25.1)

# prepare SPC/E topology
molecule        spce spce.txt
Read molecule template spce:
# SPC/E water molecule
  1 molecules
  0 fragments
  3 atoms with max type 3
  2 bonds with max type 1
  1 angles with max type 1
  0 dihedrals with max type 0
  0 impropers with max type 0

# Read xyz file
read_dump graphene.xyz 0  x y z box no add yes format xyz #name frame_number box format add
Adding 'type' field to requested per-atom fields
Scanning dump file ...
Reading snapshot from dump file ...
  orthogonal box = (0 0 -25.1) to (42.6 44.2712 25.1)
  0 atoms before read
  1440 atoms in snapshot
  0 atoms purged
  0 atoms replaced
  0 atoms trimmed
  1440 atoms added
  1440 atoms after read

group           wall type 1 6
1440 atoms in group wall

#====== Forcefield =======
mass 1 12.0110 # carbon
mass 2 15.99940 # oxygen
mass 3 1.00800 # hydrogen
mass 4 22.9898 # Na
mass 5 35.453 # Cl
mass 6 12.0110 # carbon2

pair_coeff 1 1 0.0663 3.5812 # graphene-graphene
pair_coeff 2 2 0.1553 3.1656 # oxygen-oxygen
pair_coeff 3 3 0.0000 0.0000 # hydrogen-hydrogen
pair_coeff 4 4 0.09999999999999999 2.584 # Na-Na
pair_coeff 5 5 0.09999999999999999 4.401 # Cl-Cl
pair_coeff 6 6 0.0663 3.5812 # graphene2-graphene2

# spce rigid settings
bond_coeff      1     1000       1.0
angle_coeff     1     100       109.47

velocity        wall set 0.0 0.0 0.0
region upper block $(xlo) $(xhi) $(ylo) $(yhi) 0 $(zhi)
region upper block 0 $(xhi) $(ylo) $(yhi) 0 $(zhi)
region upper block 0 42.600000000000001421 $(ylo) $(yhi) 0 $(zhi)
region upper block 0 42.600000000000001421 0 $(yhi) 0 $(zhi)
region upper block 0 42.600000000000001421 0 44.27120000000000033 0 $(zhi)
region upper block 0 42.600000000000001421 0 44.27120000000000033 0 25.100000000000001421
region lower block $(xlo) $(xhi) $(ylo) $(yhi) $(zlo) 0
region lower block 0 $(xhi) $(ylo) $(yhi) $(zlo) 0
region lower block 0 42.600000000000001421 $(ylo) $(yhi) $(zlo) 0
region lower block 0 42.600000000000001421 0 $(yhi) $(zlo) 0
region lower block 0 42.600000000000001421 0 44.27120000000000033 $(zlo) 0
region lower block 0 42.600000000000001421 0 44.27120000000000033 -25.100000000000001421 0
group lowerAll region lower
720 atoms in group lowerAll
group upperAll region upper
720 atoms in group upperAll
group lower intersect wall lowerAll
720 atoms in group lower
group upper intersect wall upperAll
720 atoms in group upper
group lowerAll delete
group upperAll delete
region upper delete
region lower delete
fix freeze_lower lower setforce 0.0 0.0 0.0
fix freeze_upper upper setforce 0.0 0.0 0.0

#set group upper mol 1
#set group lower mol 2

#######################################################################
#                          Setup a few ions                           #
#######################################################################
variable xpos equal random(0,$(xhi),42)
variable xpos equal random(0,42.600000000000001421,42)
variable ypos equal random(0,$(yhi),42)
variable ypos equal random(0,44.27120000000000033,42)
variable zpos equal random($(zlo)+3,$(zhi)-3,42)
variable zpos equal random(-25.100000000000001421+3,$(zhi)-3,42)
variable zpos equal random(-25.100000000000001421+3,25.100000000000001421-3,42)

# create Na
create_atoms 4 single 17.9320660829544 2.36691259689331 10.5902015686035
Created 1 atoms
create_atoms 4 single 26.2941858172417 35.3006726100922 -21.6539248108864
Created 1 atoms
create_atoms 4 single 15.6054027199745 15.8112672562599 1.864000415802
Created 1 atoms
create_atoms 4 single 16.1955487132072 26.2547107264996 14.9622463583946
Created 1 atoms
set type 4 charge 1.
Setting atom values ...
  4 settings made for charge

# create Cl
create_atoms 5 single 23.5632809042931 36.666808258009 -2.28963959217072
Created 1 atoms
create_atoms 5 single 1.67083951234818 15.8431171998978 12.3860389113426
Created 1 atoms
create_atoms 5 single 9.64388408660889 36.6125762744427 -18.0695293188095
Created 1 atoms
create_atoms 5 single 11.1462733268738 2.01072625951767 10.0015774846077
Created 1 atoms
set type 5 charge -1.
Setting atom values ...
  4 settings made for charge

# *********************************************************
# setup water
# *********************************************************
# include only waters- not rigid slab

lattice custom 4.5 a1 0.8 0.0 0.0 a2 0.0 0.8 0.0 a3 0.0 0.0 .6 basis 0.0 0.0 0.0
Lattice spacing in x,y,z = 3.6 3.6 2.7
region insert block $(xlo) $(xhi) $(ylo) $(yhi) $(-8.1) $(8.1)
region insert block 0 $(xhi) $(ylo) $(yhi) $(-8.1) $(8.1)
region insert block 0 42.600000000000001421 $(ylo) $(yhi) $(-8.1) $(8.1)
region insert block 0 42.600000000000001421 0 $(yhi) $(-8.1) $(8.1)
region insert block 0 42.600000000000001421 0 44.27120000000000033 $(-8.1) $(8.1)
region insert block 0 42.600000000000001421 0 44.27120000000000033 -8.0999999999999996447 $(8.1)
region insert block 0 42.600000000000001421 0 44.27120000000000033 -8.0999999999999996447 8.0999999999999996447
create_atoms 0 region insert mol spce 23786
Created 7956 atoms
#create_atoms 0 random 1 9872 insert mol spce 1786
group           h2o type 2 3
7956 atoms in group h2o
# evaporate waters to get desired number
variable        Nd  equal $(count(h2o)/3 - v_Nw)
variable        Nd  equal 1
System has 2652 waters. Removing 1.
fix 1 h2o evaporate 1 $(v_Nd*3) box 12496 molecule yes
fix 1 h2o evaporate 1 3 box 12496 molecule yes
run 1

CITE-CITE-CITE-CITE-CITE-CITE-CITE-CITE-CITE-CITE-CITE-CITE-CITE

Your simulation uses code contributions which should be cited:

- kspace_style pppm/electrode command:

@article{Ahrens2021,
author = {Ahrens-Iwers, Ludwig J.V. and Mei{\ss}ner, Robert H.},
doi = {10.1063/5.0063381},
title = {{Constant potential simulations on a mesh}},
journal = {Journal of Chemical Physics},
year = {2021}
volume = {155},
pages = {104104},
}
CITE-CITE-CITE-CITE-CITE-CITE-CITE-CITE-CITE-CITE-CITE-CITE-CITE

PPPM/electrode initialization ...
  G vector (1/distance) = 0.23783361
  grid = 40 45 100
  stencil order = 5
  estimated absolute RMS force accuracy = 0.00036359168
  estimated relative force accuracy = 1.0949456e-06
  3d grid and FFT values/proc = 45144 22200
Generated 15 of 15 mixed pair_coeff terms from arithmetic mixing rule
Step          Temp          E_pair         E_mol          TotEng         Press
0   0              1.127601e+11   0.0030706219   1.127601e+11   3.2666814e+11
Loop time of 0.0309755 on 30 procs for 1 steps with 9401 atoms

unfix 1
#region box delete
print "System now has $(count(h2o)/3) waters."
System now has 2651 waters.
reset_atoms id
PPPM/electrode initialization ...
  G vector (1/distance) = 0.23783319
  grid = 40 45 100
  stencil order = 5
  estimated absolute RMS force accuracy = 0.00036351831
  estimated relative force accuracy = 1.0947246e-06
  3d grid and FFT values/proc = 45144 22200
Generated 15 of 15 mixed pair_coeff terms from arithmetic mixing rule
Finding 1-2 1-3 1-4 neighbors ...
     2 = max # of 1-2 neighbors
     1 = max # of 1-3 neighbors
     1 = max # of 1-4 neighbors
     5 = max # of special neighbors

reset_timestep 0
neighbor        2.0 bin
neigh_modify    every 1 delay 10 check yes
neigh_modify    exclude type 1 1
neigh_modify    exclude type 6 6
neigh_modify    exclude type 1 6
timestep        2

# Minimization run
thermo 10
min_style cg
minimize 1.0e-4 1.0e-6 1000 10000
PPPM/electrode initialization ...
  G vector (1/distance) = 0.23783319
  grid = 40 45 100
  stencil order = 5
  estimated absolute RMS force accuracy = 0.00036351831
  estimated relative force accuracy = 1.0947246e-06
  3d grid and FFT values/proc = 45144 22200
Generated 15 of 15 mixed pair_coeff terms from arithmetic mixing rule
Step          Temp          E_pair         E_mol          TotEng         Press
0   0              1.1272222e+11  0.0030694641   1.1272222e+11  3.2655817e+11
Loop time of 7.14611 on 30 procs for 227 steps with 9401 atoms

Minimization stats:
  Stopping criterion = energy tolerance
  Energy initial, next-to-last, final =
  Force two-norm initial, final = 2.9555983e+12 103.91429
  Force max component initial, final = 1.7853172e+12 22.835504
  Final line search alpha, max atom move = 0.003511616 0.08018952
  Iterations, force evaluations = 227 397

# setup nvt for ions and water
group           solvent type 2 3 4 5
7961 atoms in group solvent
compute watertemp solvent temp
velocity solvent create 300.0 4928459 rot yes dist gaussian

# ======== set up NVT integration ========
# rigid constraints with thermostat
fix             wshake h2o shake 0.0001 50 0 b 1 a 1 mol spce
Finding SHAKE clusters ...
       0 = # of size 2 clusters
       0 = # of size 3 clusters
       0 = # of size 4 clusters
    2651 = # of frozen angles
  find clusters CPU = 0.001 seconds

fix             mynvt solvent nvt temp 300 300 $(100.0*v_dt)
fix             mynvt solvent nvt temp 300 300 200
fix_modify      mynvt temp watertemp
thermo_style custom step pe ke ecoul elong evdwl c_watertemp # water temp
label loop_start
    variable l_tf equal 1/2
    # fix id group1 electrode/conp psi1 eta couple group2 psi2 write_inv
    # fix conp1 lower electrode/conp 0.0 5 couple upper 0.0 write_inv inv.out etypes 1*6 # Write call to not have to determine the matrix twice
    fix conp1 lower electrode/conp 0.0 2.925 couple upper 0.0# Write call to not have to determine the matrix twice
1440 atoms in group conp_group
    fix_modify conp1 tf 1 0.5 6.81038626666667
    fix_modify conp1 tf 6 0.5 6.81038626666667
    # fix conp1 lower electrode/conp 0.0 5 couple upper 0.0 read_inv inv.out # Write call to not have to determine the matrix twice

    # ======== equilibrate for ? ns ========
    reset_timestep 0
    thermo 50
    # dump equilxtc h2o xtc 50 equil.xtc
    run 500 # 1 ps, ~ correlation time of spce water

CITE-CITE-CITE-CITE-CITE-CITE-CITE-CITE-CITE-CITE-CITE-CITE-CITE

Your simulation uses code contributions which should be cited:

- fix electrode command:

@article{Ahrens2022
author = {Ahrens-Iwers, Ludwig J.V. and Janssen, Mahijs and Tee, Shern R. and Mei{\ss}ner, Robert H.},
doi = {10.1063/5.0099239},
title = {{ELECTRODE: An electrochemistry package for LAMMPS}},
journal = {The Journal of Chemical Physics},
year = {2022}
volume = {157},
pages = {084801},
}
CITE-CITE-CITE-CITE-CITE-CITE-CITE-CITE-CITE-CITE-CITE-CITE-CITE

PPPM/electrode initialization ...
  G vector (1/distance) = 0.23783319
  grid = 40 45 100
  stencil order = 5
  estimated absolute RMS force accuracy = 0.00036351831
  estimated relative force accuracy = 1.0947246e-06
  3d grid and FFT values/proc = 45144 22200
Generated 15 of 15 mixed pair_coeff terms from arithmetic mixing rule
Step         PotEng         KinEng         E_coul         E_long         E_vdwl      c_watertemp
0  -36235.364      7118.1744      85170.821     -127467.7       6061.5157      449.80222
Loop time of 13.276 on 30 procs for 500 steps with 9401 atoms

    write_dump solvent xyz water_ions.xyz
    write_data equilibrated_structure.data
System init for write_data ...
PPPM/electrode initialization ...
  G vector (1/distance) = 0.23783322
  grid = 40 45 100
  stencil order = 5
  estimated absolute RMS force accuracy = 0.00036352325
  estimated relative force accuracy = 1.0947395e-06
  3d grid and FFT values/proc = 45144 22200
Generated 15 of 15 mixed pair_coeff terms from arithmetic mixing rule

    ## ======== production run ========

    reset_timestep 0
    # Dump to also show the changing charge of the walls
    dump alldump all custom 50 wallcharge_0.5.lammpstrj id type x y z q
    thermo 500 # frequency log file
    #
    variable doutx equal 50 # 0.1ps
    #
    run 20000
PPPM/electrode initialization ...
  G vector (1/distance) = 0.23783322
  grid = 40 45 100
  stencil order = 5
  estimated absolute RMS force accuracy = 0.00036352325
  estimated relative force accuracy = 1.0947395e-06
  3d grid and FFT values/proc = 45144 22200
Generated 15 of 15 mixed pair_coeff terms from arithmetic mixing rule
Step         PotEng         KinEng         E_coul         E_long         E_vdwl      c_watertemp
0  -30606.504      4275.4116      91620.704     -127458.24      5231.0335      270.16613
Averages over the last 21 of 41 rows, steps 10000 to 20000:
PotEng KinEng E_coul E_long E_vdwl c_watertemp
-29842.7 4735.17 92718.4 -127456 4894.51 299.219
Loop time of 507.814 on 30 procs for 20000 steps with 9401 atoms

    unfix conp1
    fix conp2 lower electrode/conp 0.5 2.925 couple upper -0.5
1440 atoms in group conp_group
    fix_modify conp2 tf 1 0.5 6.81038626666667
    fix_modify conp2 tf 6 0.5 6.81038626666667
    run         200000 # 400 ps
PPPM/electrode initialization ...
  G vector (1/distance) = 0.23783322
  grid = 40 45 100
  stencil order = 5
  estimated absolute RMS force accuracy = 0.00036352309
  estimated relative force accuracy = 1.094739e-06
  3d grid and FFT values/proc = 45144 22200
Generated 15 of 15 mixed pair_coeff terms from arithmetic mixing rule
Step         PotEng         KinEng         E_coul         E_long         E_vdwl      c_watertemp
20000  -29951.058      4697.3038      92576.88      -127446.74      4918.7995      296.82578
Averages over the last 201 of 401 rows, steps 120000 to 220000:
PotEng KinEng E_coul E_long E_vdwl c_watertemp
-29784 4742.98 92765.5 -127440 4890.23 299.712
Loop time of 8513.7 on 30 procs for 200000 steps with 9401 atoms

    #write_data structure.data
    undump alldump
    next l
    unfix conp2
    jump SELF loop_start
    variable l_tf equal 2/2
    # fix id group1 electrode/conp psi1 eta couple group2 psi2 write_inv
    # fix conp1 lower electrode/conp 0.0 5 couple upper 0.0 write_inv inv.out etypes 1*6 # Write call to not have to determine the matrix twice
    fix conp1 lower electrode/conp 0.0 2.925 couple upper 0.0# Write call to not have to determine the matrix twice
1440 atoms in group conp_group
    fix_modify conp1 tf 1 1 6.81038626666667
    fix_modify conp1 tf 6 1 6.81038626666667
    # fix conp1 lower electrode/conp 0.0 5 couple upper 0.0 read_inv inv.out # Write call to not have to determine the matrix twice

    # ======== equilibrate for ? ns ========
    reset_timestep 0
    thermo 50
    # dump equilxtc h2o xtc 50 equil.xtc
    run 500 # 1 ps, ~ correlation time of spce water
PPPM/electrode initialization ...
  G vector (1/distance) = 0.23783325
  grid = 40 45 100
  stencil order = 5
  estimated absolute RMS force accuracy = 0.00036352839
  estimated relative force accuracy = 1.094755e-06
  3d grid and FFT values/proc = 45144 22200
Generated 15 of 15 mixed pair_coeff terms from arithmetic mixing rule
Step         PotEng         KinEng         E_coul         E_long         E_vdwl      c_watertemp
0  -29847.671      4761.9762      92485.565     -127438.1       5104.8622      300.91248
Loop time of 14.1451 on 30 procs for 500 steps with 9401 atoms

    write_dump solvent xyz water_ions.xyz
    write_data equilibrated_structure.data
System init for write_data ...
PPPM/electrode initialization ...
  G vector (1/distance) = 0.23783322
  grid = 40 45 100
  stencil order = 5
  estimated absolute RMS force accuracy = 0.0003635227
  estimated relative force accuracy = 1.0947378e-06
  3d grid and FFT values/proc = 45144 22200
Generated 15 of 15 mixed pair_coeff terms from arithmetic mixing rule

    ## ======== production run ========

    reset_timestep 0
    # Dump to also show the changing charge of the walls
    dump alldump all custom 50 wallcharge_1.lammpstrj id type x y z q
    thermo 500 # frequency log file
    #
    variable doutx equal 50 # 0.1ps
    #
    run 20000
PPPM/electrode initialization ...
  G vector (1/distance) = 0.23783322
  grid = 40 45 100
  stencil order = 5
  estimated absolute RMS force accuracy = 0.0003635227
  estimated relative force accuracy = 1.0947378e-06
  3d grid and FFT values/proc = 45144 22200
Generated 15 of 15 mixed pair_coeff terms from arithmetic mixing rule
Step         PotEng         KinEng         E_coul         E_long         E_vdwl      c_watertemp
0  -29644.266      4787.9399      92901.772     -127450.93      4904.8892      302.55314
Averages over the last 21 of 41 rows, steps 10000 to 20000:
PotEng KinEng E_coul E_long E_vdwl c_watertemp
-29820.3 4735.12 92731.2 -127452 4900.63 299.216
Loop time of 579.55 on 30 procs for 20000 steps with 9401 atoms

    unfix conp1
    fix conp2 lower electrode/conp 0.5 2.925 couple upper -0.5
1440 atoms in group conp_group
    fix_modify conp2 tf 1 1 6.81038626666667
    fix_modify conp2 tf 6 1 6.81038626666667
    run         200000 # 400 ps
PPPM/electrode initialization ...
  G vector (1/distance) = 0.23783321
  grid = 40 45 100
  stencil order = 5
  estimated absolute RMS force accuracy = 0.00036352055
  estimated relative force accuracy = 1.0947313e-06
  3d grid and FFT values/proc = 45144 22200
Generated 15 of 15 mixed pair_coeff terms from arithmetic mixing rule
Step         PotEng         KinEng         E_coul         E_long         E_vdwl      c_watertemp
20000  -29759.481      4702.4826      92963.515     -127450.62      4727.6246      297.15304
Averages over the last 201 of 401 rows, steps 120000 to 220000:
PotEng KinEng E_coul E_long E_vdwl c_watertemp
-29789.5 4742.24 92760.6 -127442 4892.05 299.665
Loop time of 5524.08 on 30 procs for 200000 steps with 9401 atoms

    #write_data structure.data
    undump alldump
    next l
    unfix conp2
    jump SELF loop_start
    variable l_tf equal 3/2
    # fix id group1 electrode/conp psi1 eta couple group2 psi2 write_inv
    # fix conp1 lower electrode/conp 0.0 5 couple upper 0.0 write_inv inv.out etypes 1*6 # Write call to not have to determine the matrix twice
    fix conp1 lower electrode/conp 0.0 2.925 couple upper 0.0# Write call to not have to determine the matrix twice
1440 atoms in group conp_group
    fix_modify conp1 tf 1 1.5 6.81038626666667
    fix_modify conp1 tf 6 1.5 6.81038626666667
    # fix conp1 lower electrode/conp 0.0 5 couple upper 0.0 read_inv inv.out # Write call to not have to determine the matrix twice

    # ======== equilibrate for ? ns ========
    reset_timestep 0
    thermo 50
    # dump equilxtc h2o xtc 50 equil.xtc
    run 500 # 1 ps, ~ correlation time of spce water
PPPM/electrode initialization ...
  G vector (1/distance) = 0.23783323
  grid = 40 45 100
  stencil order = 5
  estimated absolute RMS force accuracy = 0.00036352521
  estimated relative force accuracy = 1.0947454e-06
  3d grid and FFT values/proc = 45144 22200
Generated 15 of 15 mixed pair_coeff terms from arithmetic mixing rule
Step         PotEng         KinEng         E_coul         E_long         E_vdwl      c_watertemp
0  -29907.243      4741.1347      92499.795     -127443.51      5036.4684      299.59549
Loop time of 14.3492 on 30 procs for 500 steps with 9401 atoms

    write_dump solvent xyz water_ions.xyz
    write_data equilibrated_structure.data
System init for write_data ...
PPPM/electrode initialization ...
  G vector (1/distance) = 0.23783321
  grid = 40 45 100
  stencil order = 5
  estimated absolute RMS force accuracy = 0.00036352076
  estimated relative force accuracy = 1.094732e-06
  3d grid and FFT values/proc = 45144 22200
Generated 15 of 15 mixed pair_coeff terms from arithmetic mixing rule

    ## ======== production run ========

    reset_timestep 0
    # Dump to also show the changing charge of the walls
    dump alldump all custom 50 wallcharge_1.5.lammpstrj id type x y z q
    thermo 500 # frequency log file
    #
    variable doutx equal 50 # 0.1ps
    #
    run 20000
PPPM/electrode initialization ...
  G vector (1/distance) = 0.23783321
  grid = 40 45 100
  stencil order = 5
  estimated absolute RMS force accuracy = 0.00036352076
  estimated relative force accuracy = 1.094732e-06
  3d grid and FFT values/proc = 45144 22200
Generated 15 of 15 mixed pair_coeff terms from arithmetic mixing rule
Step         PotEng         KinEng         E_coul         E_long         E_vdwl      c_watertemp
0  -29865.875      4844.2345      92753.362     -127451.42      4832.1868      306.11043
Averages over the last 21 of 41 rows, steps 10000 to 20000:
PotEng KinEng E_coul E_long E_vdwl c_watertemp
-29804.3 4745.55 92779.9 -127451 4867.2 299.875
Loop time of 552.151 on 30 procs for 20000 steps with 9401 atoms

    unfix conp1
    fix conp2 lower electrode/conp 0.5 2.925 couple upper -0.5
1440 atoms in group conp_group
    fix_modify conp2 tf 1 1.5 6.81038626666667
    fix_modify conp2 tf 6 1.5 6.81038626666667
    run         200000 # 400 ps
PPPM/electrode initialization ...
  G vector (1/distance) = 0.2378332
  grid = 40 45 100
  stencil order = 5
  estimated absolute RMS force accuracy = 0.0003635195
  estimated relative force accuracy = 1.0947282e-06
  3d grid and FFT values/proc = 45144 22200
Generated 15 of 15 mixed pair_coeff terms from arithmetic mixing rule
Step         PotEng         KinEng         E_coul         E_long         E_vdwl      c_watertemp
20000  -29614.87       4711.2778      93004.808     -127445.01      4825.3355      297.70881
Averages over the last 201 of 401 rows, steps 120000 to 220000:
PotEng KinEng E_coul E_long E_vdwl c_watertemp
-29780.5 4740.95 92774.7 -127444 4888.35 299.584
Loop time of 5651.77 on 30 procs for 200000 steps with 9401 atoms

    #write_data structure.data
    undump alldump
    next l
    unfix conp2
    jump SELF loop_start
    variable l_tf equal 4/2
    # fix id group1 electrode/conp psi1 eta couple group2 psi2 write_inv
    # fix conp1 lower electrode/conp 0.0 5 couple upper 0.0 write_inv inv.out etypes 1*6 # Write call to not have to determine the matrix twice
    fix conp1 lower electrode/conp 0.0 2.925 couple upper 0.0# Write call to not have to determine the matrix twice
1440 atoms in group conp_group
    fix_modify conp1 tf 1 2 6.81038626666667
    fix_modify conp1 tf 6 2 6.81038626666667
    # fix conp1 lower electrode/conp 0.0 5 couple upper 0.0 read_inv inv.out # Write call to not have to determine the matrix twice

    # ======== equilibrate for ? ns ========
    reset_timestep 0
    thermo 50
    # dump equilxtc h2o xtc 50 equil.xtc
    run 500 # 1 ps, ~ correlation time of spce water
PPPM/electrode initialization ...
  G vector (1/distance) = 0.23783322
  grid = 40 45 100
  stencil order = 5
  estimated absolute RMS force accuracy = 0.00036352233
  estimated relative force accuracy = 1.0947367e-06
  3d grid and FFT values/proc = 45144 22200
Generated 15 of 15 mixed pair_coeff terms from arithmetic mixing rule
Step         PotEng         KinEng         E_coul         E_long         E_vdwl      c_watertemp
0  -29830.97       4681.9492      92699.249     -127439.77      4909.5476      295.85552
Loop time of 14.6381 on 30 procs for 500 steps with 9401 atoms

    write_dump solvent xyz water_ions.xyz
    write_data equilibrated_structure.data
System init for write_data ...
PPPM/electrode initialization ...
  G vector (1/distance) = 0.2378332
  grid = 40 45 100
  stencil order = 5
  estimated absolute RMS force accuracy = 0.00036351952
  estimated relative force accuracy = 1.0947282e-06
  3d grid and FFT values/proc = 45144 22200
Generated 15 of 15 mixed pair_coeff terms from arithmetic mixing rule

    ## ======== production run ========

    reset_timestep 0
    # Dump to also show the changing charge of the walls
    dump alldump all custom 50 wallcharge_2.lammpstrj id type x y z q
    thermo 500 # frequency log file
    #
    variable doutx equal 50 # 0.1ps
    #
    run 20000
PPPM/electrode initialization ...
  G vector (1/distance) = 0.2378332
  grid = 40 45 100
  stencil order = 5
  estimated absolute RMS force accuracy = 0.00036351952
  estimated relative force accuracy = 1.0947282e-06
  3d grid and FFT values/proc = 45144 22200
Generated 15 of 15 mixed pair_coeff terms from arithmetic mixing rule
Step         PotEng         KinEng         E_coul         E_long         E_vdwl      c_watertemp
0  -29862.208      4777.5842      92625.186     -127449.05      4961.6607      301.89876
Averages over the last 21 of 41 rows, steps 10000 to 20000:
PotEng KinEng E_coul E_long E_vdwl c_watertemp
-29807.1 4720.61 92762.2 -127449 4879.49 298.298
Loop time of 554.079 on 30 procs for 20000 steps with 9401 atoms

    unfix conp1
    fix conp2 lower electrode/conp 0.5 2.925 couple upper -0.5
1440 atoms in group conp_group
    fix_modify conp2 tf 1 2 6.81038626666667
    fix_modify conp2 tf 6 2 6.81038626666667
    run         200000 # 400 ps
PPPM/electrode initialization ...
  G vector (1/distance) = 0.2378332
  grid = 40 45 100
  stencil order = 5
  estimated absolute RMS force accuracy = 0.00036351888
  estimated relative force accuracy = 1.0947263e-06
  3d grid and FFT values/proc = 45144 22200
Generated 15 of 15 mixed pair_coeff terms from arithmetic mixing rule
Step         PotEng         KinEng         E_coul         E_long         E_vdwl      c_watertemp
20000  -29754.47       4684.6046      92760.958     -127444.99      4929.5622      296.02331
Averages over the last 201 of 401 rows, steps 120000 to 220000:
PotEng KinEng E_coul E_long E_vdwl c_watertemp
-29779.5 4749.53 92773.3 -127446 4893.6 300.126
Loop time of 5592.48 on 30 procs for 200000 steps with 9401 atoms

    #write_data structure.data
    undump alldump
    next l
    unfix conp2
    jump SELF loop_start
    variable l_tf equal 5/2
    # fix id group1 electrode/conp psi1 eta couple group2 psi2 write_inv
    # fix conp1 lower electrode/conp 0.0 5 couple upper 0.0 write_inv inv.out etypes 1*6 # Write call to not have to determine the matrix twice
    fix conp1 lower electrode/conp 0.0 2.925 couple upper 0.0# Write call to not have to determine the matrix twice
1440 atoms in group conp_group
    fix_modify conp1 tf 1 2.5 6.81038626666667
    fix_modify conp1 tf 6 2.5 6.81038626666667
    # fix conp1 lower electrode/conp 0.0 5 couple upper 0.0 read_inv inv.out # Write call to not have to determine the matrix twice

    # ======== equilibrate for ? ns ========
    reset_timestep 0
    thermo 50
    # dump equilxtc h2o xtc 50 equil.xtc
    run 500 # 1 ps, ~ correlation time of spce water
PPPM/electrode initialization ...
  G vector (1/distance) = 0.2378332
  grid = 40 45 100
  stencil order = 5
  estimated absolute RMS force accuracy = 0.00036351997
  estimated relative force accuracy = 1.0947296e-06
  3d grid and FFT values/proc = 45144 22200
Generated 15 of 15 mixed pair_coeff terms from arithmetic mixing rule
Step         PotEng         KinEng         E_coul         E_long         E_vdwl      c_watertemp
0  -29731.055      4705.44        92882.086     -127439.88      4826.7353      297.33992
Loop time of 14.5133 on 30 procs for 500 steps with 9401 atoms

    write_dump solvent xyz water_ions.xyz
    write_data equilibrated_structure.data
System init for write_data ...
PPPM/electrode initialization ...
  G vector (1/distance) = 0.2378332
  grid = 40 45 100
  stencil order = 5
  estimated absolute RMS force accuracy = 0.0003635187
  estimated relative force accuracy = 1.0947258e-06
  3d grid and FFT values/proc = 45144 22200
Generated 15 of 15 mixed pair_coeff terms from arithmetic mixing rule

    ## ======== production run ========

    reset_timestep 0
    # Dump to also show the changing charge of the walls
    dump alldump all custom 50 wallcharge_2.5.lammpstrj id type x y z q
    thermo 500 # frequency log file
    #
    variable doutx equal 50 # 0.1ps
    #
    run 20000
PPPM/electrode initialization ...
  G vector (1/distance) = 0.2378332
  grid = 40 45 100
  stencil order = 5
  estimated absolute RMS force accuracy = 0.0003635187
  estimated relative force accuracy = 1.0947258e-06
  3d grid and FFT values/proc = 45144 22200
Generated 15 of 15 mixed pair_coeff terms from arithmetic mixing rule
Step         PotEng         KinEng         E_coul         E_long         E_vdwl      c_watertemp
0  -29968.424      4771.4327      92612.979     -127450.1       4868.7014      301.51004
Averages over the last 21 of 41 rows, steps 10000 to 20000:
PotEng KinEng E_coul E_long E_vdwl c_watertemp
-29765.1 4744.08 92813.2 -127448 4870.04 299.782
Loop time of 556.695 on 30 procs for 20000 steps with 9401 atoms

    unfix conp1
    fix conp2 lower electrode/conp 0.5 2.925 couple upper -0.5
1440 atoms in group conp_group
    fix_modify conp2 tf 1 2.5 6.81038626666667
    fix_modify conp2 tf 6 2.5 6.81038626666667
    run         200000 # 400 ps
PPPM/electrode initialization ...
  G vector (1/distance) = 0.2378332
  grid = 40 45 100
  stencil order = 5
  estimated absolute RMS force accuracy = 0.00036351863
  estimated relative force accuracy = 1.0947256e-06
  3d grid and FFT values/proc = 45144 22200
Generated 15 of 15 mixed pair_coeff terms from arithmetic mixing rule
Step         PotEng         KinEng         E_coul         E_long         E_vdwl      c_watertemp
20000  -29637.267      4744.0895      92914.822     -127443.82      4891.7333      299.7822
Averages over the last 201 of 401 rows, steps 120000 to 220000:
PotEng KinEng E_coul E_long E_vdwl c_watertemp
-29777.8 4749.56 92785.9 -127447 4883.33 300.128
Loop time of 5669.87 on 30 procs for 200000 steps with 9401 atoms

    #write_data structure.data
    undump alldump
    next l
    unfix conp2
    jump SELF loop_start
    variable l_tf equal 6/2
    # fix id group1 electrode/conp psi1 eta couple group2 psi2 write_inv
    # fix conp1 lower electrode/conp 0.0 5 couple upper 0.0 write_inv inv.out etypes 1*6 # Write call to not have to determine the matrix twice
    fix conp1 lower electrode/conp 0.0 2.925 couple upper 0.0# Write call to not have to determine the matrix twice
1440 atoms in group conp_group
    fix_modify conp1 tf 1 3 6.81038626666667
    fix_modify conp1 tf 6 3 6.81038626666667
    # fix conp1 lower electrode/conp 0.0 5 couple upper 0.0 read_inv inv.out # Write call to not have to determine the matrix twice

    # ======== equilibrate for ? ns ========
    reset_timestep 0
    thermo 50
    # dump equilxtc h2o xtc 50 equil.xtc
    run 500 # 1 ps, ~ correlation time of spce water
PPPM/electrode initialization ...
  G vector (1/distance) = 0.2378332
  grid = 40 45 100
  stencil order = 5
  estimated absolute RMS force accuracy = 0.00036351918
  estimated relative force accuracy = 1.0947272e-06
  3d grid and FFT values/proc = 45144 22200
Generated 15 of 15 mixed pair_coeff terms from arithmetic mixing rule
Step         PotEng         KinEng         E_coul         E_long         E_vdwl      c_watertemp
0  -29729.554      4750.2221      92851.011     -127443.01      4862.4493      300.16972
Loop time of 14.7941 on 30 procs for 500 steps with 9401 atoms

    write_dump solvent xyz water_ions.xyz
    write_data equilibrated_structure.data
System init for write_data ...
PPPM/electrode initialization ...
  G vector (1/distance) = 0.23783319
  grid = 40 45 100
  stencil order = 5
  estimated absolute RMS force accuracy = 0.00036351856
  estimated relative force accuracy = 1.0947254e-06
  3d grid and FFT values/proc = 45144 22200
Generated 15 of 15 mixed pair_coeff terms from arithmetic mixing rule

    ## ======== production run ========

    reset_timestep 0
    # Dump to also show the changing charge of the walls
    dump alldump all custom 50 wallcharge_3.lammpstrj id type x y z q
    thermo 500 # frequency log file
    #
    variable doutx equal 50 # 0.1ps
    #
    run 20000
PPPM/electrode initialization ...
  G vector (1/distance) = 0.23783319
  grid = 40 45 100
  stencil order = 5
  estimated absolute RMS force accuracy = 0.00036351856
  estimated relative force accuracy = 1.0947254e-06
  3d grid and FFT values/proc = 45144 22200
Generated 15 of 15 mixed pair_coeff terms from arithmetic mixing rule
Step         PotEng         KinEng         E_coul         E_long         E_vdwl      c_watertemp
0  -29655.826      4685.5043      92929.057     -127444.95      4860.0662      296.08016
Averages over the last 21 of 41 rows, steps 10000 to 20000:
PotEng KinEng E_coul E_long E_vdwl c_watertemp
-29789.7 4766.12 92744.7 -127448 4913.44 301.174
Loop time of 607.979 on 30 procs for 20000 steps with 9401 atoms

    unfix conp1
    fix conp2 lower electrode/conp 0.5 2.925 couple upper -0.5
1440 atoms in group conp_group
    fix_modify conp2 tf 1 3 6.81038626666667
    fix_modify conp2 tf 6 3 6.81038626666667
    run         200000 # 400 ps
PPPM/electrode initialization ...
  G vector (1/distance) = 0.23783319
  grid = 40 45 100
  stencil order = 5
  estimated absolute RMS force accuracy = 0.00036351848
  estimated relative force accuracy = 1.0947251e-06
  3d grid and FFT values/proc = 45144 22200
Generated 15 of 15 mixed pair_coeff terms from arithmetic mixing rule
Step         PotEng         KinEng         E_coul         E_long         E_vdwl      c_watertemp
20000  -29742.441      4751.4155      92806.401     -127444.44      4895.5992      300.24514
Averages over the last 201 of 401 rows, steps 120000 to 220000:
PotEng KinEng E_coul E_long E_vdwl c_watertemp
-29792 4748.82 92773.7 -127447 4881.29 300.081
Loop time of 5635.07 on 30 procs for 200000 steps with 9401 atoms

    #write_data structure.data
    undump alldump
    next l
    unfix conp2
    jump SELF loop_start
    variable l_tf equal 7/2
    # fix id group1 electrode/conp psi1 eta couple group2 psi2 write_inv
    # fix conp1 lower electrode/conp 0.0 5 couple upper 0.0 write_inv inv.out etypes 1*6 # Write call to not have to determine the matrix twice
    fix conp1 lower electrode/conp 0.0 2.925 couple upper 0.0# Write call to not have to determine the matrix twice
1440 atoms in group conp_group
    fix_modify conp1 tf 1 3.5 6.81038626666667
    fix_modify conp1 tf 6 3.5 6.81038626666667
    # fix conp1 lower electrode/conp 0.0 5 couple upper 0.0 read_inv inv.out # Write call to not have to determine the matrix twice

    # ======== equilibrate for ? ns ========
    reset_timestep 0
    thermo 50
    # dump equilxtc h2o xtc 50 equil.xtc
    run 500 # 1 ps, ~ correlation time of spce water
PPPM/electrode initialization ...
  G vector (1/distance) = 0.2378332
  grid = 40 45 100
  stencil order = 5
  estimated absolute RMS force accuracy = 0.00036351884
  estimated relative force accuracy = 1.0947262e-06
  3d grid and FFT values/proc = 45144 22200
Generated 15 of 15 mixed pair_coeff terms from arithmetic mixing rule
Step         PotEng         KinEng         E_coul         E_long         E_vdwl      c_watertemp
0  -29823.724      4744.0673      92806.859     -127445.2       4814.6184      299.7808
Loop time of 13.538 on 30 procs for 500 steps with 9401 atoms

    write_dump solvent xyz water_ions.xyz
    write_data equilibrated_structure.data
System init for write_data ...
PPPM/electrode initialization ...
  G vector (1/distance) = 0.23783319
  grid = 40 45 100
  stencil order = 5
  estimated absolute RMS force accuracy = 0.00036351843
  estimated relative force accuracy = 1.0947249e-06
  3d grid and FFT values/proc = 45144 22200
Generated 15 of 15 mixed pair_coeff terms from arithmetic mixing rule

    ## ======== production run ========

    reset_timestep 0
    # Dump to also show the changing charge of the walls
    dump alldump all custom 50 wallcharge_3.5.lammpstrj id type x y z q
    thermo 500 # frequency log file
    #
    variable doutx equal 50 # 0.1ps
    #
    run 20000
PPPM/electrode initialization ...
  G vector (1/distance) = 0.23783319
  grid = 40 45 100
  stencil order = 5
  estimated absolute RMS force accuracy = 0.00036351843
  estimated relative force accuracy = 1.0947249e-06
  3d grid and FFT values/proc = 45144 22200
Generated 15 of 15 mixed pair_coeff terms from arithmetic mixing rule
Step         PotEng         KinEng         E_coul         E_long         E_vdwl      c_watertemp
0  -29906.979      4762.0083      92743.297     -127447.32      4797.0421      300.91451
Averages over the last 21 of 41 rows, steps 10000 to 20000:
PotEng KinEng E_coul E_long E_vdwl c_watertemp
-29800.5 4754.8 92745 -127448 4902.52 300.459
Loop time of 556.891 on 30 procs for 20000 steps with 9401 atoms

    unfix conp1
    fix conp2 lower electrode/conp 0.5 2.925 couple upper -0.5
1440 atoms in group conp_group
    fix_modify conp2 tf 1 3.5 6.81038626666667
    fix_modify conp2 tf 6 3.5 6.81038626666667
    run         200000 # 400 ps
PPPM/electrode initialization ...
  G vector (1/distance) = 0.23783319
  grid = 40 45 100
  stencil order = 5
  estimated absolute RMS force accuracy = 0.00036351842
  estimated relative force accuracy = 1.0947249e-06
  3d grid and FFT values/proc = 45144 22200
Generated 15 of 15 mixed pair_coeff terms from arithmetic mixing rule
Step         PotEng         KinEng         E_coul         E_long         E_vdwl      c_watertemp
20000  -29766.306      4774.2762      92772.677     -127442.19      4903.2052      301.68972
Averages over the last 201 of 401 rows, steps 120000 to 220000:
PotEng KinEng E_coul E_long E_vdwl c_watertemp
-29790.9 4744.37 92757.3 -127447 4898.79 299.8
Loop time of 5414.98 on 30 procs for 200000 steps with 9401 atoms

    #write_data structure.data
    undump alldump
    next l
    unfix conp2
    jump SELF loop_start
    variable l_tf equal 8/2
    # fix id group1 electrode/conp psi1 eta couple group2 psi2 write_inv
    # fix conp1 lower electrode/conp 0.0 5 couple upper 0.0 write_inv inv.out etypes 1*6 # Write call to not have to determine the matrix twice
    fix conp1 lower electrode/conp 0.0 2.925 couple upper 0.0# Write call to not have to determine the matrix twice
1440 atoms in group conp_group
    fix_modify conp1 tf 1 4 6.81038626666667
    fix_modify conp1 tf 6 4 6.81038626666667
    # fix conp1 lower electrode/conp 0.0 5 couple upper 0.0 read_inv inv.out # Write call to not have to determine the matrix twice

    # ======== equilibrate for ? ns ========
    reset_timestep 0
    thermo 50
    # dump equilxtc h2o xtc 50 equil.xtc
    run 500 # 1 ps, ~ correlation time of spce water
PPPM/electrode initialization ...
  G vector (1/distance) = 0.2378332
  grid = 40 45 100
  stencil order = 5
  estimated absolute RMS force accuracy = 0.00036351861
  estimated relative force accuracy = 1.0947255e-06
  3d grid and FFT values/proc = 45144 22200
Generated 15 of 15 mixed pair_coeff terms from arithmetic mixing rule
Step         PotEng         KinEng         E_coul         E_long         E_vdwl      c_watertemp
0  -29707.252      4668.397       92735.983     -127443.82      5000.5874      294.99914
Loop time of 13.6324 on 30 procs for 500 steps with 9401 atoms

    write_dump solvent xyz water_ions.xyz
    write_data equilibrated_structure.data
System init for write_data ...
PPPM/electrode initialization ...
  G vector (1/distance) = 0.23783319
  grid = 40 45 100
  stencil order = 5
  estimated absolute RMS force accuracy = 0.00036351839
  estimated relative force accuracy = 1.0947248e-06
  3d grid and FFT values/proc = 45144 22200
Generated 15 of 15 mixed pair_coeff terms from arithmetic mixing rule

    ## ======== production run ========

    reset_timestep 0
    # Dump to also show the changing charge of the walls
    dump alldump all custom 50 wallcharge_4.lammpstrj id type x y z q
    thermo 500 # frequency log file
    #
    variable doutx equal 50 # 0.1ps
    #
    run 20000
PPPM/electrode initialization ...
  G vector (1/distance) = 0.23783319
  grid = 40 45 100
  stencil order = 5
  estimated absolute RMS force accuracy = 0.00036351839
  estimated relative force accuracy = 1.0947248e-06
  3d grid and FFT values/proc = 45144 22200
Generated 15 of 15 mixed pair_coeff terms from arithmetic mixing rule
Step         PotEng         KinEng         E_coul         E_long         E_vdwl      c_watertemp
0  -29658.178      4677.6499      93036.964     -127447.26      4752.119       295.58384
Averages over the last 21 of 41 rows, steps 10000 to 20000:
PotEng KinEng E_coul E_long E_vdwl c_watertemp
-29816.6 4739.52 92745.2 -127445 4883.27 299.493
Loop time of 512.531 on 30 procs for 20000 steps with 9401 atoms

    unfix conp1
    fix conp2 lower electrode/conp 0.5 2.925 couple upper -0.5
1440 atoms in group conp_group
    fix_modify conp2 tf 1 4 6.81038626666667
    fix_modify conp2 tf 6 4 6.81038626666667
    run         200000 # 400 ps
PPPM/electrode initialization ...
  G vector (1/distance) = 0.23783319
  grid = 40 45 100
  stencil order = 5
  estimated absolute RMS force accuracy = 0.00036351836
  estimated relative force accuracy = 1.0947247e-06
  3d grid and FFT values/proc = 45144 22200
Generated 15 of 15 mixed pair_coeff terms from arithmetic mixing rule
Step         PotEng         KinEng         E_coul         E_long         E_vdwl      c_watertemp
20000  -29893.573      4725.5943      92579.499     -127444.78      4971.7108      298.61348
Averages over the last 201 of 401 rows, steps 120000 to 220000:
PotEng KinEng E_coul E_long E_vdwl c_watertemp
-29793.3 4747.63 92768.1 -127447 4885.51 300.006
Loop time of 5237.59 on 30 procs for 200000 steps with 9401 atoms

    #write_data structure.data
    undump alldump
    next l
    unfix conp2
    jump SELF loop_start
    variable l_tf equal 9/2
    # fix id group1 electrode/conp psi1 eta couple group2 psi2 write_inv
    # fix conp1 lower electrode/conp 0.0 5 couple upper 0.0 write_inv inv.out etypes 1*6 # Write call to not have to determine the matrix twice
    fix conp1 lower electrode/conp 0.0 2.925 couple upper 0.0# Write call to not have to determine the matrix twice
1440 atoms in group conp_group
    fix_modify conp1 tf 1 4.5 6.81038626666667
    fix_modify conp1 tf 6 4.5 6.81038626666667
    # fix conp1 lower electrode/conp 0.0 5 couple upper 0.0 read_inv inv.out # Write call to not have to determine the matrix twice

    # ======== equilibrate for ? ns ========
    reset_timestep 0
    thermo 50
    # dump equilxtc h2o xtc 50 equil.xtc
    run 500 # 1 ps, ~ correlation time of spce water
PPPM/electrode initialization ...
  G vector (1/distance) = 0.23783319
  grid = 40 45 100
  stencil order = 5
  estimated absolute RMS force accuracy = 0.00036351858
  estimated relative force accuracy = 1.0947254e-06
  3d grid and FFT values/proc = 45144 22200
Generated 15 of 15 mixed pair_coeff terms from arithmetic mixing rule
Step         PotEng         KinEng         E_coul         E_long         E_vdwl      c_watertemp
0  -29730.827      4747.015       92667.331     -127436.27      5038.1086      299.96706
Loop time of 12.9841 on 30 procs for 500 steps with 9401 atoms

    write_dump solvent xyz water_ions.xyz
    write_data equilibrated_structure.data
System init for write_data ...
PPPM/electrode initialization ...
  G vector (1/distance) = 0.23783319
  grid = 40 45 100
  stencil order = 5
  estimated absolute RMS force accuracy = 0.00036351835
  estimated relative force accuracy = 1.0947247e-06
  3d grid and FFT values/proc = 45144 22200
Generated 15 of 15 mixed pair_coeff terms from arithmetic mixing rule

    ## ======== production run ========

    reset_timestep 0
    # Dump to also show the changing charge of the walls
    dump alldump all custom 50 wallcharge_4.5.lammpstrj id type x y z q
    thermo 500 # frequency log file
    #
    variable doutx equal 50 # 0.1ps
    #
    run 20000
PPPM/electrode initialization ...
  G vector (1/distance) = 0.23783319
  grid = 40 45 100
  stencil order = 5
  estimated absolute RMS force accuracy = 0.00036351835
  estimated relative force accuracy = 1.0947247e-06
  3d grid and FFT values/proc = 45144 22200
Generated 15 of 15 mixed pair_coeff terms from arithmetic mixing rule
Step         PotEng         KinEng         E_coul         E_long         E_vdwl      c_watertemp
0  -29801.676      4772.7299      92816.85      -127440.62      4822.0949      301.59201
Averages over the last 21 of 41 rows, steps 10000 to 20000:
PotEng KinEng E_coul E_long E_vdwl c_watertemp
-29751.6 4753.34 92809.9 -127446 4884.9 300.366
Loop time of 486.585 on 30 procs for 20000 steps with 9401 atoms

    unfix conp1
    fix conp2 lower electrode/conp 0.5 2.925 couple upper -0.5
1440 atoms in group conp_group
    fix_modify conp2 tf 1 4.5 6.81038626666667
    fix_modify conp2 tf 6 4.5 6.81038626666667
    run         200000 # 400 ps
PPPM/electrode initialization ...
  G vector (1/distance) = 0.23783319
  grid = 40 45 100
  stencil order = 5
  estimated absolute RMS force accuracy = 0.00036351835
  estimated relative force accuracy = 1.0947247e-06
  3d grid and FFT values/proc = 45144 22200
Generated 15 of 15 mixed pair_coeff terms from arithmetic mixing rule
Step         PotEng         KinEng         E_coul         E_long         E_vdwl      c_watertemp
20000  -29709.507      4734.9024      92801.372     -127445.58      4934.7051      299.20166
Averages over the last 201 of 401 rows, steps 120000 to 220000:
PotEng KinEng E_coul E_long E_vdwl c_watertemp
-29789.6 4742.51 92773.3 -127446 4883.28 299.683
Loop time of 5216.18 on 30 procs for 200000 steps with 9401 atoms

    #write_data structure.data
    undump alldump
    next l
    unfix conp2
    jump SELF loop_start
    variable l_tf equal 10/2
    # fix id group1 electrode/conp psi1 eta couple group2 psi2 write_inv
    # fix conp1 lower electrode/conp 0.0 5 couple upper 0.0 write_inv inv.out etypes 1*6 # Write call to not have to determine the matrix twice
    fix conp1 lower electrode/conp 0.0 2.925 couple upper 0.0# Write call to not have to determine the matrix twice
1440 atoms in group conp_group
    fix_modify conp1 tf 1 5 6.81038626666667
    fix_modify conp1 tf 6 5 6.81038626666667
    # fix conp1 lower electrode/conp 0.0 5 couple upper 0.0 read_inv inv.out # Write call to not have to determine the matrix twice

    # ======== equilibrate for ? ns ========
    reset_timestep 0
    thermo 50
    # dump equilxtc h2o xtc 50 equil.xtc
    run 500 # 1 ps, ~ correlation time of spce water
PPPM/electrode initialization ...
  G vector (1/distance) = 0.23783319
  grid = 40 45 100
  stencil order = 5
  estimated absolute RMS force accuracy = 0.00036351857
  estimated relative force accuracy = 1.0947254e-06
  3d grid and FFT values/proc = 45144 22200
Generated 15 of 15 mixed pair_coeff terms from arithmetic mixing rule
Step         PotEng         KinEng         E_coul         E_long         E_vdwl      c_watertemp
0  -29836.164      4724.1474      92552.589     -127446.41      5057.6553      298.52205
Loop time of 13.2607 on 30 procs for 500 steps with 9401 atoms

    write_dump solvent xyz water_ions.xyz
    write_data equilibrated_structure.data
System init for write_data ...
PPPM/electrode initialization ...
  G vector (1/distance) = 0.23783319
  grid = 40 45 100
  stencil order = 5
  estimated absolute RMS force accuracy = 0.00036351834
  estimated relative force accuracy = 1.0947247e-06
  3d grid and FFT values/proc = 45144 22200
Generated 15 of 15 mixed pair_coeff terms from arithmetic mixing rule

    ## ======== production run ========

    reset_timestep 0
    # Dump to also show the changing charge of the walls
    dump alldump all custom 50 wallcharge_5.lammpstrj id type x y z q
    thermo 500 # frequency log file
    #
    variable doutx equal 50 # 0.1ps
    #
    run 20000
PPPM/electrode initialization ...
  G vector (1/distance) = 0.23783319
  grid = 40 45 100
  stencil order = 5
  estimated absolute RMS force accuracy = 0.00036351834
  estimated relative force accuracy = 1.0947247e-06
  3d grid and FFT values/proc = 45144 22200
Generated 15 of 15 mixed pair_coeff terms from arithmetic mixing rule
Step         PotEng         KinEng         E_coul         E_long         E_vdwl      c_watertemp
0  -29950.028      4845.6231      92583.741     -127447.52      4913.7557      306.19818
Averages over the last 21 of 41 rows, steps 10000 to 20000:
PotEng KinEng E_coul E_long E_vdwl c_watertemp
-29794.8 4751.09 92785.9 -127446 4865.17 300.225
Loop time of 493.998 on 30 procs for 20000 steps with 9401 atoms

    unfix conp1
    fix conp2 lower electrode/conp 0.5 2.925 couple upper -0.5
1440 atoms in group conp_group
    fix_modify conp2 tf 1 5 6.81038626666667
    fix_modify conp2 tf 6 5 6.81038626666667
    run         200000 # 400 ps
PPPM/electrode initialization ...
  G vector (1/distance) = 0.23783319
  grid = 40 45 100
  stencil order = 5
  estimated absolute RMS force accuracy = 0.00036351834
  estimated relative force accuracy = 1.0947247e-06
  3d grid and FFT values/proc = 45144 22200
Generated 15 of 15 mixed pair_coeff terms from arithmetic mixing rule
Step         PotEng         KinEng         E_coul         E_long         E_vdwl      c_watertemp
20000  -29765.474      4681.5852      92692.147     -127440.28      4982.6594      295.83251
Averages over the last 201 of 401 rows, steps 120000 to 220000:
PotEng KinEng E_coul E_long E_vdwl c_watertemp
-29800.8 4749.56 92753.4 -127447 4892.47 300.128
Loop time of 5160.23 on 30 procs for 200000 steps with 9401 atoms

    #write_data structure.data
    undump alldump
    next l
    unfix conp2
    jump SELF loop_start
label loop_end
